
 OpenBabel09181513003D

 17 17  0  0  1  0  0  0  0  0999 V2000
    9.7591    5.2780   -2.8845 O   0  0  0  0  0  0  0  0  0  0  0  0
    8.8038    4.2253   -2.7025 C   0  0  0  0  0  0  0  0  0  0  0  0
    9.1244    3.4070   -1.4503 C   0  0  3  0  0  0  0  0  0  0  0  0
    8.7891    4.1571   -0.3518 F   0  0  0  0  0  0  0  0  0  0  0  0
    8.3905    2.0824   -1.4885 C   0  0  0  0  0  0  0  0  0  0  0  0
    7.0388    2.0995   -1.5451 N   0  0  0  0  0  0  0  0  0  0  0  0
    6.4124    0.9004   -1.5486 C   0  0  0  0  0  0  0  0  0  0  0  0
    7.0742   -0.3042   -1.5121 C   0  0  0  0  0  0  0  0  0  0  0  0
    6.2484   -1.7999   -1.5189 Cl  0  0  0  0  0  0  0  0  0  0  0  0
    8.4453   -0.2214   -1.4743 C   0  0  0  0  0  0  0  0  0  0  0  0
    9.1275    0.9479   -1.4662 N   0  0  0  0  0  0  0  0  0  0  0  0
    9.3957    5.8783   -3.5591 H   0  0  0  0  0  0  0  0  0  0  0  0
    8.8352    3.6051   -3.6053 H   0  0  0  0  0  0  0  0  0  0  0  0
    7.8112    4.6823   -2.6187 H   0  0  0  0  0  0  0  0  0  0  0  0
   10.2041    3.2318   -1.3837 H   0  0  0  0  0  0  0  0  0  0  0  0
    5.3282    0.9492   -1.5808 H   0  0  0  0  0  0  0  0  0  0  0  0
    9.0649   -1.1135   -1.4460 H   0  0  0  0  0  0  0  0  0  0  0  0
  1  2  1  0  0  0  0
  1 12  1  0  0  0  0
  2  3  1  0  0  0  0
  2 13  1  0  0  0  0
  2 14  1  0  0  0  0
  3  5  1  0  0  0  0
  3  4  1  0  0  0  0
  3 15  1  0  0  0  0
  5 11  1  0  0  0  0
  5  6  2  0  0  0  0
  6  7  1  0  0  0  0
  7  8  2  0  0  0  0
  7 16  1  0  0  0  0
  8 10  1  0  0  0  0
  8  9  1  0  0  0  0
 10 11  2  0  0  0  0
 10 17  1  0  0  0  0
M  END
$$$$
