
 OpenBabel09081510163D

 15 15  0  0  0  0  0  0  0  0999 V2000
   -0.6919    1.1551   -0.0244 C   0  0  0  0  0  0  0  0  0  0  0  0
    0.7023    1.2307    0.0316 C   0  0  0  0  0  0  0  0  0  0  0  0
    1.4645    0.0647    0.0373 C   0  0  0  0  0  0  0  0  0  0  0  0
    0.8336   -1.1761   -0.0190 C   0  0  0  0  0  0  0  0  0  0  0  0
   -0.5612   -1.2511   -0.0742 C   0  0  0  0  0  0  0  0  0  0  0  0
   -1.3406   -0.0864   -0.0649 C   0  0  0  0  0  0  0  0  0  0  0  0
   -2.8067   -0.1182   -0.1543 C   0  0  0  0  0  0  0  0  0  0  0  0
   -3.5418   -1.2359   -0.2218 *   0  0  0  0  0  0  0  0  0  0  0  0
   -1.2682    2.0769   -0.0279 H   0  0  0  0  0  0  0  0  0  0  0  0
    1.1916    2.2002    0.0704 H   0  0  0  0  0  0  0  0  0  0  0  0
    2.5489    0.1226    0.0796 H   0  0  0  0  0  0  0  0  0  0  0  0
    1.4256   -2.0876   -0.0246 H   0  0  0  0  0  0  0  0  0  0  0  0
   -1.0294   -2.2304   -0.1371 H   0  0  0  0  0  0  0  0  0  0  0  0
   -3.0527    0.4404   -1.0331 H   0  0  0  0  0  0  0  0  0  0  0  0
   -3.0706    0.2318    0.8218 H   0  0  0  0  0  0  0  0  0  0  0  0
  1  6  1  0  0  0  0
  1  2  2  0  0  0  0
  1  9  1  0  0  0  0
  2  3  1  0  0  0  0
  2 10  1  0  0  0  0
  3  4  2  0  0  0  0
  3 11  1  0  0  0  0
  4  5  1  0  0  0  0
  4 12  1  0  0  0  0
  5  6  2  0  0  0  0
  5 13  1  0  0  0  0
  6  7  1  0  0  0  0
  7  8  1  0  0  0  0
  7 14  1  0  0  0  0
  7 15  1  0  0  0  0
M  END
$$$$
