MethylChloroStyrene
 OpenBabel09081509583D

 19 19  0  0  0  0  0  0  0  0999 V2000
   -0.5923    1.1559    0.1668 C   0  0  0  0  0  0  0  0  0  0  0  0
    0.7988    1.1539    0.2915 C   0  0  0  0  0  0  0  0  0  0  0  0
    1.5151   -0.0250    0.0937 C   0  0  0  0  0  0  0  0  0  0  0  0
    0.8433   -1.2021   -0.2317 C   0  0  0  0  0  0  0  0  0  0  0  0
   -0.5475   -1.2010   -0.3572 C   0  0  0  0  0  0  0  0  0  0  0  0
   -1.2755   -0.0240   -0.1494 C   0  0  0  0  0  0  0  0  0  0  0  0
   -2.7343    0.0093   -0.3045 C   0  0  0  0  0  0  0  0  0  0  0  0
   -3.6339   -0.6634    0.4329 C   0  0  0  0  0  0  0  0  0  0  0  0
   -3.1904   -1.6947    1.7528 Cl  0  0  0  0  0  0  0  0  0  0  0  0
   -5.1111   -0.5670    0.2065 C   0  0  0  0  0  0  0  0  0  0  0  0
   -1.1382    2.0827    0.3264 H   0  0  0  0  0  0  0  0  0  0  0  0
    1.3219    2.0721    0.5446 H   0  0  0  0  0  0  0  0  0  0  0  0
    2.5979   -0.0270    0.1930 H   0  0  0  0  0  0  0  0  0  0  0  0
    1.4007   -2.1219   -0.3875 H   0  0  0  0  0  0  0  0  0  0  0  0
   -1.0577   -2.1258   -0.6165 H   0  0  0  0  0  0  0  0  0  0  0  0
   -3.0784    0.6684   -1.0983 H   0  0  0  0  0  0  0  0  0  0  0  0
   -5.3543    0.1050   -0.6234 H   0  0  0  0  0  0  0  0  0  0  0  0
   -5.6141   -0.1834    1.1005 H   0  0  0  0  0  0  0  0  0  0  0  0
   -5.5281   -1.5511   -0.0324 H   0  0  0  0  0  0  0  0  0  0  0  0
  1  6  1  0  0  0  0
  1  2  2  0  0  0  0
  1 11  1  0  0  0  0
  2  3  1  0  0  0  0
  2 12  1  0  0  0  0
  3  4  2  0  0  0  0
  3 13  1  0  0  0  0
  4  5  1  0  0  0  0
  4 14  1  0  0  0  0
  5  6  2  0  0  0  0
  5 15  1  0  0  0  0
  6  7  1  0  0  0  0
  7  8  2  3  0  0  0
  7 16  1  0  0  0  0
  8 10  1  0  0  0  0
  8  9  1  0  0  0  0
 10 17  1  0  0  0  0
 10 18  1  0  0  0  0
 10 19  1  0  0  0  0
M  END
$$$$
