
 OpenBabel09141517143D

 30 30  0  0  0  0  0  0  0  0999 V2000
    0.7000    1.2797   -0.1717 C   0  0  0  0  0  0  0  0  0  0  0  0
   -0.7670    1.2685    0.3197 N   0  0  0  0  0  0  0  0  0  0  0  0
   -0.8449    1.4036    1.8469 C   0  0  0  0  0  0  0  0  0  0  0  0
   -1.4875    2.5006   -0.2719 C   0  0  0  0  0  0  0  0  0  0  0  0
   -1.4990   -0.0039   -0.1693 C   0  0  0  0  0  0  0  0  0  0  0  0
   -0.7356   -1.3126    0.1664 C   0  0  0  0  0  0  0  0  0  0  0  0
    0.7328   -1.3036   -0.3224 N   0  0  0  0  0  0  0  0  0  0  0  0
    0.8124   -1.4443   -1.8493 C   0  0  0  0  0  0  0  0  0  0  0  0
    1.4510   -2.5323    0.2751 C   0  0  0  0  0  0  0  0  0  0  0  0
    1.4653   -0.0284    0.1621 C   0  0  0  0  0  0  0  0  0  0  0  0
    0.6696    1.4335   -1.2557 H   0  0  0  0  0  0  0  0  0  0  0  0
    1.1928    2.1438    0.2889 H   0  0  0  0  0  0  0  0  0  0  0  0
   -0.3410    0.5503    2.3038 H   0  0  0  0  0  0  0  0  0  0  0  0
   -1.8993    1.4218    2.1366 H   0  0  0  0  0  0  0  0  0  0  0  0
   -0.3493    2.3355    2.1346 H   0  0  0  0  0  0  0  0  0  0  0  0
   -1.4472    2.4298   -1.3625 H   0  0  0  0  0  0  0  0  0  0  0  0
   -0.9676    3.3983    0.0746 H   0  0  0  0  0  0  0  0  0  0  0  0
   -2.5236    2.4895    0.0764 H   0  0  0  0  0  0  0  0  0  0  0  0
   -2.4932   -0.0074    0.2909 H   0  0  0  0  0  0  0  0  0  0  0  0
   -1.6177    0.0964   -1.2542 H   0  0  0  0  0  0  0  0  0  0  0  0
   -0.7072   -1.4656    1.2505 H   0  0  0  0  0  0  0  0  0  0  0  0
   -1.2279   -2.1765   -0.2942 H   0  0  0  0  0  0  0  0  0  0  0  0
    0.3169   -0.5882   -2.3099 H   0  0  0  0  0  0  0  0  0  0  0  0
    0.3094   -2.3728   -2.1342 H   0  0  0  0  0  0  0  0  0  0  0  0
    1.8669   -1.4729   -2.1365 H   0  0  0  0  0  0  0  0  0  0  0  0
    1.4091   -2.4576    1.3656 H   0  0  0  0  0  0  0  0  0  0  0  0
    2.4886   -2.5239   -0.0712 H   0  0  0  0  0  0  0  0  0  0  0  0
    0.9316   -3.4320   -0.0685 H   0  0  0  0  0  0  0  0  0  0  0  0
    1.5889   -0.1276    1.2458 H   0  0  0  0  0  0  0  0  0  0  0  0
    2.4576   -0.0252   -0.3026 H   0  0  0  0  0  0  0  0  0  0  0  0
  1 10  1  0  0  0  0
  1  2  1  0  0  0  0
  1 11  1  0  0  0  0
  1 12  1  0  0  0  0
  2  5  1  0  0  0  0
  2  4  1  0  0  0  0
  2  3  1  0  0  0  0
  3 13  1  0  0  0  0
  3 14  1  0  0  0  0
  3 15  1  0  0  0  0
  4 16  1  0  0  0  0
  4 17  1  0  0  0  0
  4 18  1  0  0  0  0
  5  6  1  0  0  0  0
  5 19  1  0  0  0  0
  5 20  1  0  0  0  0
  6  7  1  0  0  0  0
  6 21  1  0  0  0  0
  6 22  1  0  0  0  0
  7 10  1  0  0  0  0
  7  9  1  0  0  0  0
  7  8  1  0  0  0  0
  8 23  1  0  0  0  0
  8 24  1  0  0  0  0
  8 25  1  0  0  0  0
  9 26  1  0  0  0  0
  9 27  1  0  0  0  0
  9 28  1  0  0  0  0
 10 29  1  0  0  0  0
 10 30  1  0  0  0  0
M  CHG  2   2   1   7   1
M  END
$$$$
