
 OpenBabel09031509533D

 10 10  0  0  0  0  0  0  0  0999 V2000
   -0.7524    1.1622    0.0085 C   0  0  0  0  0  0  0  0  0  0  0  0
    0.6237    1.1828    0.0253 C   0  0  0  0  0  0  0  0  0  0  0  0
    1.3838    0.0724    0.0537 N   0  0  0  0  0  0  0  0  0  0  0  0
    0.7125   -1.0900    0.0650 C   0  0  0  0  0  0  0  0  0  0  0  0
   -0.6223   -1.2320    0.0508 N   0  0  0  0  0  0  0  0  0  0  0  0
   -1.3289   -0.0868    0.0225 C   0  0  0  0  0  0  0  0  0  0  0  0
   -1.3409    2.0681   -0.0143 V   0  0  0  0  0  0  0  0  0  0  0  0
    1.1718    2.1206    0.0162 V   0  0  0  0  0  0  0  0  0  0  0  0
    1.3034   -1.9989    0.0879 V   0  0  0  0  0  0  0  0  0  0  0  0
   -2.4081   -0.2074    0.0110 V   0  0  0  0  0  0  0  0  0  0  0  0
  1  6  1  0  0  0  0
  1  2  2  0  0  0  0
  1  7  1  0  0  0  0
  2  3  1  0  0  0  0
  2  8  1  0  0  0  0
  3  4  2  0  0  0  0
  4  5  1  0  0  0  0
  4  9  1  0  0  0  0
  5  6  2  0  0  0  0
  6 10  1  0  0  0  0
M  END
$$$$
