
 OpenBabel09181513163D

  7  7  0  0  0  0  0  0  0  0999 V2000
   -0.7103    1.0909    0.0592 C   0  0  0  0  0  0  0  0  0  0  0  0
    0.6245    1.2365    0.0464 N   0  0  0  0  0  0  0  0  0  0  0  0
    1.3339    0.0931    0.0224 C   0  0  0  0  0  0  0  0  0  0  0  0
    0.7606   -1.1577    0.0112 C   0  0  0  0  0  0  0  0  0  0  0  0
   -0.6148   -1.1818    0.0262 C   0  0  0  0  0  0  0  0  0  0  0  0
   -1.3784   -0.0737    0.0503 N   0  0  0  0  0  0  0  0  0  0  0  0
   -1.3040    1.9987    0.0786 *   0  0  0  0  0  0  0  0  0  0  0  0
  1  6  1  0  0  0  0
  1  2  2  0  0  0  0
  1  7  1  0  0  0  0
  2  3  1  0  0  0  0
  3  4  2  0  0  0  0
  4  5  1  0  0  0  0
  5  6  2  0  0  0  0
M  END
$$$$
